$
$ Original input file: D:\aegis\Documents\TFG\TESTFEA\PATR\011.bdf
$
NASTRAN  SYSTEM(316)=5 SYSTEM(357)=0 SYSTEM(732)=1  
INIT MASTER, LOGICAL=(MASTER(300000))
SOL nifimp3
compile nifimp3 NOLIST
 
SUBDMAP nifimp3 $
$ v2: remove calls to ifp7 and ifp9
$ v3: correct mpt and mptk for composite properties(after call of ifp6)
$ v4: casecc was in scratch, put it to dball
$ v5: distinguish mpt and mptk.
$ v6: generate matpoolk, and it is can be different from matpool
$ v7: remove all lines after my exit(include exit)
$ v8: generate GEOM3K
$ v9: generate GEOM1K,GEOM2K and GEOM4K
$ v10: generate all data blocks with postfix K and delete all with *
$ v11: matpool was lost
$ v12: correct PCOMPT
$ v13: generate BULK
$ v14: fix empty BULK issue
$ v15: FATIGUE data block
$ v16: No BULK
$ v17: issue a warning message instead of fatal when the SMEAR option is used
$    with Z0 for composites.(system(668)=1)
$ v18: allow step for sol 400
$ v19: use sys82 for ic
$ v20: datablock units
$ v21: keep the original ept and mpt when PCOMP referring to a non-existing MAT8
$ v22: skip calling ifp10(for topogloical optimization)
$
$ Used in Patran for Nastran input file import
$
type parm,,char8,n,sname='nifimp' $
TYPE PARM,,CHAR8,N,blnk $
TYPE PARM,,CHAR40,N,modname=' ' $
TYPE PARM,nddl,CHAR8,N,ftl,wrn $
TYPE PARM,,CHAR12,N,BADOUT='BULK DATA' $
TYPE PARM,,I,N,OUNITX=-1,OTAPE2,NP,ounit1x,s416,s419,s417  $
TYPE PARM,NDDL,I,N,ISWPPT,nswppt,ISWELM,nswelm,AUXMID $
 
type parm,,logical,n,runifp3=false,runifp4=false,runifp5=false,
      runifp6=false,runifp7=false,runifp8=false,runifp9=false,
      nogoifp3=false,nogoifp4=false,nogoifp5=false,pexist,edoml,
      nogoifp6=false,nogoifp7=false,nogoifp8=false,nogoifp9=false,
      runmept=FALSE,nogomept=false,opost,nogomgm2,runifp10=false,
      nogoif10=false,doshr,nonlnr=false,baroff,bemoff,s365,npl,delparam $
type parm,,char8,n,geom1,axic $
 
TYPE PARM,nddl,CHAR8,Y,omachpr,OGEOM $ GEOMETRY
TYPE PARM,nddl,I,Y,POST,OMAXR $ MAX RECORD LENGTH
TYPE PARM,nddl,I,Y,OUNIT1 $ GEOMETRY OUTPUT2 FORTRAN UNIT NUMBER
TYPE PARM,nddl,I,Y,OUNIT2 $ RESULTS  OUTPUT2 FORTRAN UNIT NUMBER
type parm,nddl,i,y,lgdisp,oswppt,oswelm $
type parm,nddl,char8,y,cwdiagp,csdiagp $
type parm,,char8,y,rigid,arbmps='yes',arbmfem='yes' $
type parm,nddl,rs,y,cwrandel,csrandel,patver $
type parm,,i,y,osrigid=2000000 $
type parm,,rs,y,lmfact=-1.0,penfn=-1.0,soffset=100.0 $
$ if default value for osrigid is modified, the variable osrgd0 in subroutine
$ mdg2rg must also be modified accordingly.
type parm,,logi,n,larbmps,larbmfem,newifp,nifimp $
 
type db ibulk*,geom1*,ept*,mpt*,edt*,dit*,dynamic*,geom2*,
        geom3*,geom4*,matpool*,axic*,pvt*,pcompt*,dmi*,dmindx*,
        dti*,dtindx*,defuset*,edom*,deqatn*,deqind*,contact*,
        oint*,bulklist $
type db casecc,ibulk,geom1,ept,mpt,edt,dit,dynamic,
    geom2,geom3,geom4,matpool,axic,pvt,pcompt,dmi,dmindx,
    dti,dtindx,defuset,edom,deqatn,deqind,fatigue,contact,
    emap,oint,bulklist,units $
type db casecck,geom1k,eptk,mptk,edtk,ditk,dynamick,
    geom2k,geom3k,geom4k,matpoolk,edomk,contactk,dynamick $
 
if ( getsys(np,31)<>0 ) putsys(0,444) $ if MESH then override 444
newifp=getsys(np,444)<>0 $
nifimp=false $
if(sname='nifimp') nifimp=true $
 
type parm,,logical,n,STEPRR=false $
type parm,,i,n,isys82,isys365 $
 
isys365 = getsys(0,365) $ ifp1 will set this forcedly
if ( nifimp ) then $
  isys82 = getsys(0,82) $
  STEPRR = true $
  putsys(1,82) $
endif $
IFP1     /iCASECC,iPCDB,iXYCDB,iPOSTCDB,iFORCE,,,
          /S,N,NOGOIFP1///STEPRR $
getsys(isys365,365) $
if (nifimp) putsys(isys82,82) $
 
if ( not newifp ) then $
   XSORT    iFORCE,,/
       iBULK,/S,N,NOGOXSRT $
   IFP     iBULK/
           GEOM1.0,EPT.0,MPT.0,IEDT,iDIT,iDYNAMIC,
           GEOM2.0,GEOM3.0,GEOM4.0,epta,pcompt.0,
           MTPOL.0,iAXIC,iPVT,iDMI,iDMINDX,iDTI,iDTINDX,
           DEFUSET,iEDOM,iDEQATN,iDEQIND,CONTACT,OINT,unused2,mpt2/
           S,N,NOGOIFP/s,n,runifp3/s,n,runifp4/s,n,runifp5/
           s,n,runifp6/s,n,runifp7/s,n,runifp8/s,n,runifp9//s,n,runmept/
           s,n,runifp10 $
else $
   call ifpstar  iforce,icasecc,/
                 ibulk*,geom1*,ept*,mpt*,edt*,dit*,dynamic*,geom2*,
                 geom3*,geom4*,eptax,pcompt*,matpool*,axic*,pvt*,
                 dmi*,dmindx*,dti*,dtindx*,defuset*,edom*,deqatn*,
                 deqind*,contact*,oint*,ubulk,bulklist,fatigue,emap/
                 s,nogoxsrt/
                 s,NOGOIFP/s,RUNIFP3/s,RUNIFP4/s,RUNIFP5/s,RUNIFP6/
                 s,RUNIFP7/s,RUNIFP8/s,RUNIFP9/s,RUNMEPT/s,RUNIFP10/
                 s,DELPARAM  $
   equivx   geom1*/GEOM1.0/-1 $
   equivx   ept*/EPT.0/-1 $
   equivx   mpt*/MPT.0/-1 $
   equivx   edt*/IEDT/-1 $
   equivx   dit*/IDIT/-1 $
   equivx   dynamic*/IDYNAMIC/-1 $
   equivx   geom2*/GEOM2.0/-1 $
   equivx   geom3*/GEOM3.0/-1 $
   equivx   geom4*/GEOM4.0/-1 $
   equivx   eptax/epta/-1 $
   equivx   pcompt*/pcompt.0/-1 $
   equivx   matpool*/MTPOL.0/-1 $
   equivx   axic*/IAXIC/-1 $
   equivx   pvt*/iPVT/-1 $
   equivx   dmi*/IDMI/-1 $
   equivx   dmindx*/IDMINDX/-1 $
   equivx   dti*/IDTI/-1 $
   equivx   dtindx*/IDTINDX/-1 $
   equivx   defuset*/DEFUSET/-1 $
   equivx   edom*/IEDOM/-1 $
   equivx   deqatn*/iDEQATN/-1 $
   equivx   deqind*/iDEQIND/-1 $
   equivx   contact*/CONTACT/-1 $
   equivx   oint*/OINT/-1 $
endif $ not newifp
$
message //' ' $
message //' >>> ifp operations complete <<<' $
message //' ' $
 
PVT      iPVT,iCASECC/ $ RESOLVE PARAMETER VALUES SET IN CASE CONTROL
$
if ( runifp3 ) then $
   ifp3     iaxic/geom1.3,geom2.3,igeom3,geom4.3/s,n,nogoifp3 $
else $
   equivx   geom1.0/geom1.3/-1 $
   equivx   geom2.0/geom2.3/-1 $
   equivx   geom3.0/igeom3 /-1 $
   equivx   geom4.0/geom4.3/-1 $
endif $
$
if ( runifp4 ) then $
   ifp4     iaxic,geom1.3,geom2.3,geom4.3,mtpol.0/
            geom1.4,geom2.4,igeom4,imatpool/s,n,nogoifp4 $
else $
   equivx   geom1.3 /geom1.4/-1 $
   equivx   geom2.3 /geom2.4/-1 $
   equivx   geom4.3 /igeom4 /-1 $
   equivx   mtpol.0/imatpool/-1 $
endif $
$
if ( runifp5 ) then $
   ifp5     iaxic,geom1.4,geom2.4/igeom1.5,igeom2.5/s,n,nogoifp5 $
else $
   equivx   geom1.4/igeom1.5/-1 $
   equivx   geom2.4/igeom2.5/-1 $
endif $
$
if ( runifp8 ) then $
   ifp8     mpt.0,idit/mpt.8/s,n,nogoifp8 $
else $
   equivx   mpt.0/mpt.8/-1 $
endif $
$
if ( not nifimp and runifp10 ) then $
   ifp10    igeom2.5,ept.0,mpt.8,iedom,pcompt.0,CONTACT/
            igeom2.6,iept.10,impt.10,toptab,topele,tomtab,pcompt.1,
            tcontact/
            s,n,nogoif10 $
   dbstatus impt.10//s,n,noimpt10 $
   if ( noimpt10<0 ) equivx   mpt.8/impt.10/-1 $
   dbstatus tcontact//s,n,notcont $
   if ( notcont>0 ) equivx  tcontact/contact/-1 $
else $
   equivx   igeom2.5/igeom2.6/-1 $
   equivx   ept.0/iept.10/-1 $
   equivx   mpt.8/impt.10/-1 $
   equivx   pcompt.0/pcompt.1/-1 $
endif $
$
if ( runifp6 ) then $
   dbstatus IEDOM//S,N,NOEDOM $
   edoml=(noedom>0) $
   $ issue a warning message instead of fatal when the SMEAR option is used with
   if (nifimp) putsys(1,668)
   ifp6     iept.10,impt.10,idit,pcompt.1,icasecc/
            ept.6,impt.9,ipcompt/
            s,n,nogoifp6/nocomp/edoml $
   $ check if ifp6 generated correct DB blocks, if not, merge them
   DBSTATUS ept.6//S,N,eptst$
   DBSTATUS impt.9//S,N,mptst
   if (eptst<>1) equivx   iept.10/ept.6/-1 $
   if (mptst<>1) equivx   impt.10/impt.9/-1 $
else $
   equivx   iept.10/ept.6/-1 $
   equivx   impt.10/impt.9/-1 $
endif $
$
if(nifimp) then $
    equivx   idit/dit/-1   $
    equivx   icasecc/casecck/-1 $
    equivx   casecck/casecc/-1 $
    equivx   igeom1.5/geom1/-1   $
    equivx   igeom1.5/geom1k/-1   $
    equivx   igeom2.6/geom2/-1   $
    equivx   igeom2.6/geom2k/-1   $
    equivx   igeom3/geom3/-1   $
    equivx   igeom3/geom3k/-1   $
    equivx   igeom4/geom4/-1   $
    equivx   igeom4/geom4k/-1   $
    equivx   MTPOL.0/MATPOOLk/-1 $
    equivx   imatpool/matpool/-1   $
    equivx   impt.10/mptk/-1   $
    equivx   impt.9/mpt/-1   $
    equivx   ept.6/ept/-1  $
    equivx   ept.6/eptk/-1  $
    equivx   iedt/edt/-1  $
    equivx   iedt/edtk/-1  $
    equivx   idynamic/dynamic/-1 $
    equivx   idynamic/dynamick/-1 $
    equivx   iaxic/axic/-1 $
    equivx   iaxic/axick/-1 $
    equivx   ipvt/pvt/-1 $
    equivx   ipcompt/pcompt/-1 $
    equivx   idmi/dmi/-1 $
    equivx   idmindx/dmindx/-1 $
    equivx   idtindx/dtindx/-1 $
    equivx   iedom/edom/-1 $
    equivx   ideqatn/deqatn/-1 $
    equivx   iedom/edomk/-1 $
 
    $ units
    PARAML   iCASECC//'DTI'/1/258//S,N,AUXMID $
    if (auxmid=0) then
      dtiin    idti,idtindx/units,,,,,,,,,/s,n,units $
      dbstatus units//s,n,nounits $
      if ( nounits<1 ) delete   /units,,,, $
    endif
 
    delete /geom1*,geom2*,geom3*,geom4*,ept* $
    delete /mpt*,edt*,dit*,matpool*,dmi*  $
    delete /dmind*,edom*,pcompt*,dynamic*,pvt* $
 
    $ index
    call xifpindx GEOM1,EPT,MPT,EDT,DIT,DYNAMIC,GEOM2,GEOM3,
               GEOM4,MATPOOL//s,np/
      'geom1  '/'ept  '/'mpt  '/'edt  '/'dit  '/
      'dynamic'/'geom2'/'geom3'/'geom4'/'matpool' $
    call xifpindx AXIC,edom,contact,oint,,,
               ,,,//s,np/
      'axic '/'edom '/'contact'/'oint '/blnk/
      blnk/blnk/blnk/blnk/blnk $
 
    exit $ nifimp
endif $ nifimp
 
if ( runifp7 ) then $
   ifp7     igeom2.5,ept.6,impt.9,idit/ept.7/s,n,nogoifp7 $
else $
   equivx   ept.6/ept.7/-1 $
endif $
$
if ( runifp9 ) then $
   larbmps=(arbmps='yes') $
   larbmfem=(arbmfem='yes') $
   ifp9     ept.7,igeom1.5,iedt,igeom2.5,impt.9,,,,,,/
            iept.9,pbmrs/
            s,n,nogoifp9/larbmps/larbmfem $
else $
   equivx   ept.7/iept.9/-1 $
endif $
if ( runmept ) then $
   $ Modify absorber and barrier properties from DIT entries
   MODEPT   IEPT.9,IDIT/IEPT.11 $
else $
   EQUIVX   IEPT.9/IEPT.11/-1 $
endif $
 
$ Modify GEOM2 for hyperelastic, acoustic, electro-magnetic
$                  weld elements, and rigid elements
$ Modify GEOM4 for weld elements, and rigid elements
 
paraml   igeom2.6//'bulk'//////'cweld'/s,n,cweld/
                               'cwseam'/s,n,cwseam/
                               'cfast'/s,n,cfast/
                               'cshear'/s,n,cshear/
                               'cbar'/s,n,cbar/
                               'cbeam'/s,n,cbeam $
s365=getsys(npl,365) $
s416=getsys(np,416) $
s417=getsys(np,417) $
s419=getsys(np,419) $
doshr=cshear=-1 and (s417>0 or (s417=-1 and s365))  $
baroff=cbar=-1 and ( (s416<>0 and s416<>-9) or (s416=-9 and s365) ) $
bemoff=cbeam=-1 and ( (s419<>0 and s419<>-9) or (s419=-9 and s365) ) $
if ( cweld=-1 or cwseam=-1 or cfast=-1 or doshr or baroff or bemoff
   ) GP1      IGEOM1.5,IGEOM2.6,,,,,,,/
         xGPL,xEQEXIN,xGPDT,xCSTM,xBGPDT,xSIL,,,,,/
         S,N,xLUSET/0/0 $
modgm2   iept.11,igeom2.6,igeom1.5,igeom4,xbgpdt,xcstm,impt.9,iedt,
         idynamic/
         igeom2,igeom1q,,iept,impt,igeom4q,harmelpt/
         /oswppt/oswelm/s,n,ISWPPT/s,n,nswppt/s,n,ISWELM/s,n,nswelm/
         s,n,swexist/s,n,nogomgm2/s,n,rgdexist/
         rigid/osrigid/s,n,nlrigid/
         lmfact/penfn/false/cwrandel/cwdiagp///
         s,n,noept/s,n,nompt/s,n,nogeom1/soffset/csrandel/csdiagp/
         //s,n,modfdgm4 $
if ( modfdgm4 ) equivx   igeom4q/geom4/-1 $
if ( noept=-1 ) equivx   iept.11/iept/-1 $
if ( nompt=-1 ) equivx   impt.9/impt/-1 $
if ( nogeom1=-1 ) equivx   igeom1.5/igeom1q/-1 $
 
if ( swexist and not(nogomgm2) ) then $
   MODGM4   icasecc,igeom2,igeom4,,,,,iept,,/
            MGEOM4/
            1/S,N,MODIFIED/0/s,n,nswelm/
            swexist/rgdexist $
   IF ( MODIFIED ) EQUIVX   MGEOM4/igeom4/ALWAYS $
   if ( not(swexist) or nogomgm2 ) equivx   igeom1.5/igeom1q/-1 $
else $
   equivx   igeom1.5/igeom1/-1 $
endif $ swexist
$
$  deactivate DAREA conversion in GP1
if ( getsys(np,56)>0 ) putsys(-1,320) $
 
if ( getsys(np,320)>=0 or getsys(np,350)>=0
   ) GP1      IGEOM1,IGEOM2,Igeom3,,,,Idynamic,,/
              GPL,EQEXIN,GPDT,CSTM,BGPDT,SIL,,geom3n,dynamicn,,/
              S,N,LUSET/0/0 $
 
if ( getsys(np,320)>=0 and getsys(np,56)=0 ) then $
 
   $ As long as NASTRAN OLDDAREA is not specified,
   $ then, convert DAREA records in DYNAMIC to
   $ FORCE and MOMENT records in GEOM3
 
   dbstatus geom3n//s,n,nogeom3n $
   if ( nogeom3n>0 ) then $
      equivx   geom3n/Igeom3/-1 $
      equivx   dynamicn/Idynamic/-1 $
   endif $ nogeom3n>0
endif $ getsys(np,320)=0
$
if ( getsys(np,350)>=0 ) then $
   $ Convert entries:
   $     cord1   to cord2
   $     forcei  to force
   $     momenti to moment
   $     more to come
   delete   /geom3n,,,, $
   seconvrt bgpdt,igeom1,igeom2,igeom3/
            geom1n,geom2n,geom3n $
   dbstatus geom1n,geom2n,geom3n//
            s,n,nogeom1n/s,n,nogeom2n/s,n,nogeom3n $
   if ( nogeom1n>0 ) equivx   geom1n/igeom1/-1 $
   if ( nogeom2n>0 ) equivx   geom2n/igeom2/-1 $
   if ( nogeom3n>0 ) equivx   geom3n/igeom3/-1 $
endif $ getsys(np,350)>=0
 
IF ( NOGOIFP1 OR NOGOXSRT OR NOGOIFP or
     nogoifp3 or nogoifp4 or nogoifp5 or nogoifp6 or
     nogoifp7 or nogoifp8 or nogoifp9 or nogomept or
     nogomgm2 or nogoif10 ) THEN $
   IF (NOGOIFP1) THEN $
      MODNAME=CONCAT2(modname,'IFP1') $
      BADOUT='CASE CONTROL' $
   ENDIF $
   IF (NOGOXSRT) MODNAME=CONCAT2(modname,'XSORT,') $
   IF (NOGOIFP)  MODNAME=CONCAT2(modname,'IFP,') $
   IF (NOGOIFP3) modname=CONCAT2(modname,'ifp3,') $
   IF (NOGOIFP4) MODNAME=CONCAT2(modname,'IFP4,') $
   IF (NOGOIFP5) MODNAME=CONCAT2(modname,'IFP5,') $
   IF (NOGOIFP6) MODNAME=CONCAT2(modname,'IFP6,') $
   IF (NOGOIFP7) MODNAME=CONCAT2(modname,'IFP7,') $
   IF (NOGOIFP8) MODNAME=CONCAT2(modname,'IFP8,') $
   IF (NOGOIFP9) MODNAME=CONCAT2(modname,'IFP9,') $
   IF (NOGOIF10) MODNAME=CONCAT2(modname,'IFP10,') $
   IF (NOGOmept) MODNAME=CONCAT2(MODNAME,'MODEPT,') $
   IF (NOGOmgm2) MODNAME=CONCAT2(MODNAME,'MODGM2,') $
   MESSAGE //' USER'/FTL/'MESSAGE 9002 ('/sname/')' $
   message //' ERROR ENCOUNTERED IN MODULE'/MODNAME/'.'/
            ' SEE MESSAGES ABOVE IN THE'/BADOUT/' ECHO.' $
   EXIT $
ENDIF $ NOGOIFP1 OR ...
$ If ADAPT=n is requested then ADAPT=-1
PARAML   iCASEcc//'DTI'/-1/246//S,N,adapt $
paraml   iept//'bulk'//////'pset'/s,n,pset/
                           'pval'/s,n,pval $
paraml   iedt//'bulk'//////'adapt'/s,n,adapt0 $
pexist=(pset=-1 or pval=-1 or adapt0=-1) $
IF ( adapt=-1 or pexist ) then $
   MESSAGE //' USER'/FTL/'MESSAGE 9064 ('/sname/')' $
   MESSAGE //' P-VERSION ELEMENT ENTRIES ARE PRESENT'/
             ' AND ARE NOT ALLOWED IN THIS SOLUTION SEQUENCE.'/
    ' user action:  REMOVE ALL P-VERSION ELEMENT ENTRIES OR USE SOLs'/
    ' 101, 103, 107 through 112, and 200.' $
   EXIT $
ENDIF $ adapt=-1 or pexist
$
IF ( GETSYS(0,144)=1 ) then $ check for restart specification
   MESSAGE //' USER'/FTL/'MESSAGE 9080 ('/sname/')' $
   MESSAGE //' The RESTART FMS statement is not allowed in SOLution'/
             ' sequences 1 through 3 and 5 through 16.'
   EXIT $
ENDIF $ GETSYS(0,144)=1
PUTSYS(1,125) $ HONOR NOKEEP OPTION ON RESTART
if ( post=-1 or post=-2 ) then $
   opost=true $
   if ( ounit1>0 ) then $
      ounit1x=ounit1 $
   else $
      ounit1x=ounit2 $
   endif $
endif $
if ( POST=-1 ) OUTPUT2   //-1/OUNIT1x//OMAXR $
IF ( opost and (OGEOM='YES' OR OGEOM=' ') ) THEN $
   if ( omachpr='no' ) then $
      $ backup V69 tables
      equivx   igeom1/geom169/-1 $
      equivx   iaxic/axic69/-1 $
      $ create V68 tables with proper header name
      makeold  geom169,axic69,,,/geom1,axic,,,/
               'geom1'/'axic'////'geom1'/'axic' $
      geom1='geom168' $
      axic='axic68' $
   else $
      dbstatus igeom1//s,n,nogeom1 $
      dbstatus iaxic//s,n,noaxic $
      if ( nogeom1>0 ) matmod   igeom1,,,,,/geom1,/13 $
      if ( noaxic>0  ) matmod   iaxic,,,,,/axic,/13 $
   endif $ omachpr='no'
   dbstatus igeom2,igeom3,igeom4,iept,impt,idit,idynamic,
            imatpool,icasecc//
            s,n,nogeom2/s,n,nogeom3/s,n,nogeom4/
            s,n,noept/s,n,nompt/s,n,nodit/s,n,nodynam/
            s,n,nomatpol/s,n,nocasecc $
   delete   /dit,,,, $
   if ( nogeom2>0 ) matmod   igeom2,,,,,/geom2,/13 $
   if ( nogeom3>0 ) matmod   igeom3,,,,,/geom3,/13 $
   if ( nogeom4>0 ) matmod   igeom4,,,,,/geom4,/13 $
   if ( noept  >0 ) matmod   iept  ,,,,,/ept  ,/13 $
   if ( nompt  >0 ) matmod   impt  ,,,,,/mpt  ,/13 $
   if ( nodit  >0 ) matmod   idit  ,,,,,/dit  ,/13 $
   if ( nodynam>0 ) matmod   idynamic,,,,,/dynamic,/13 $
   if ( nomatpol>0 ) matmod  imatpool,,,,,/matpool,/13 $
   if ( nocasecc>0 ) matmod  icasecc,,,,,/casecc,/13 $
   IF ( POST=-1 AND PATVER>=3. ) THEN $
      OUTPUT2  GEOM1,GEOM2,GEOM3,GEOM4,EPT//
               0/OUNIT1x//OMAXR/geom1 $
      OUTPUT2  MPT,DIT,DYNAMIC//0/OUNIT1x//OMAXR $
   ELSE IF ( POST=-2 ) THEN $
      OUTPUT2  EPT,MPT,GEOM2,GEOM3,GEOM4// 0/OUNIT1x//OMAXR $
      OUTPUT2  geom1,matpool,dit,dynamic,casecc//
               0/OUNIT1x//OMAXR/geom1 $
      OUTPUT2  axic// 0/OUNIT1x//OMAXR/axic $
   ENDIF $
ENDIF $ OGEOM='YES' OR OGEOM=' '
END $ NIFIMP
alter 'ifp1 .*/iCASECC.*' (1), 'ifp1 .*/iCASECC.*' (1) $ 
IFP1     /iCASECC,iPCDB,iXYCDB,iPOSTCDB,iFORCE,,, 
         /S,N,NOGOIFP1/// $ 
CEND
$ Direct Text Input for Global Case Control Data
TITLE = MSC.Nastran job created on 29-Sep-20 at 19:02:41
ECHO = NONE 
SUBCASE 1
$ Subcase name : Default
   SUBTITLE=Default
   SPC = 2
   LOAD = 2
   DISPLACEMENT(SORT1,REAL)=ALL
   SPCFORCES(SORT1,REAL)=ALL
   STRESS(SORT1,REAL,VONMISES,BILIN)=ALL
BEGIN BULK
$ Direct Text Input for Bulk Data
MDLPRM   HDF5    0
PARAM   PRTMAXIM YES
$ Elements and Element Properties for region : sttl
PSOLID   1       1       0
$ Pset: "sttl" will be imported as: "psolid.1"
CTETRA   1       1       3282    4510    4511    2437
CTETRA   2       1       2436    2435    2434    2433
CTETRA   3       1       2432    2431    2435    2433
CTETRA   4       1       2430    2429    2428    2427
CTETRA   5       1       2426    2425    2424    2433
CTETRA   6       1       2423    2422    2421    2420
CTETRA   7       1       2419    2418    2417    2416
CTETRA   8       1       2419    2416    2417    2420
CTETRA   9       1       2417    2415    2414    2420
CTETRA   10      1       2413    2417    2414    2420
CTETRA   11      1       2423    2412    2422    2420
CTETRA   12      1       2411    2422    2419    2420
CTETRA   13      1       2410    2409    2408    2407
CTETRA   14      1       2406    2405    2409    2407
CTETRA   15      1       2404    2403    2402    2407
CTETRA   16      1       2404    2402    2401    2407
CTETRA   17      1       2400    2402    2403    2407
CTETRA   18      1       2399    2400    2403    2407
CTETRA   19      1       2398    2397    2396    2395
CTETRA   20      1       2394    2393    2392    2395
$ ... 20525 like lines cut
$ Referenced Material Records
$ Material Record : steel
$ Description of Material : Date: 29-Sep-20           Time: 18:58:24
MAT1     1       2.+11           .3
$ Nodes of the Entire Model
GRID*    1                              .131613299250603.043749805539846
*        1.27010846138
GRID*    2                              .845111429691315.169041991233826
*       .028058094903827
GRID*    3                              .920783758163452.035711158066988
*       1.26673579216003
GRID*    4                              .927533328533173.034705322235823
*       .972675800323486
GRID*    5                              .940798163414001.031392894685268
*       1.81610977649689
GRID*    6                              .963937044143677.166926726698875
*       .826278805732727
GRID*    7                              .617257118225098.050009153783321
*       1.51267218589783
GRID*    8                              .946710228919983.165833905339241
*       .078217193484306
GRID*    9                              .962142407894135 .15968132019043
*        1.7260810136795
GRID*    10                             .024499168619514.170012310147285
*       .474659651517868
GRID*    11                             .586160063743591.141712129116058
*       .033545039594173
GRID*    12                             .029831647872925.173414334654808
*       .576354801654816
GRID*    13                             .896125912666321.031079331412911
*       .030544899404049
GRID*    14                             .836186707019806.056957982480526
*       1.96648979187012
GRID*    15                             .794851899147034.035070333629847
*       1.92544221878052
GRID*    16                             .966488242149353.164852797985077
*       1.83122527599335
GRID*    17                             .409680187702179.164328932762146
*       .169903665781021
GRID*    18                             .037657514214516.163473233580589
*       1.93313121795654
GRID*    19                             .033248450607061.107044912874699
*       1.95073390007019
GRID*    20                             .785945236682892.027524832636118
*       1.96646773815155
$ ... 4986 like lines cut
GRID     2514            1.      0.      2.
GRID     2515            0.      0.      2.
GRID*    2516                            1.             .150020003318787
*        2.
GRID*    2517                            1.             .100010007619858
*        2.
GRID*    2518                            1.             .050000008195639
*        2.
GRID*    2519                            1.             .200000002980232
*        2.
GRID*    2520                           .049859967082739.200000002980232
*        2.
GRID*    2521                           .099869966506958.200000002980232
*        2.
GRID*    2522                           .149879962205887.200000002980232
*        2.
GRID*    2523                           .199889972805977.200000002980232
*        2.
GRID*    2524                           .249899968504906.200000002980232
*        2.
GRID*    2525                           .299909979104996.200000002980232
*        2.
GRID*    2526                           .349919974803925.200000002980232
*        2.
GRID*    2527                           .399929970502853.200000002980232
*        2.
GRID*    2528                           .449939966201782.200000002980232
*        2.
GRID*    2529                           .499949961900711.200000002980232
*        2.
GRID*    2530                            .54995995759964.200000002980232
*        2.
GRID*    2531                           .599969983100891.200000002980232
*        2.
GRID*    2532                           .649979948997498.200000002980232
*        2.
GRID*    2533                           .699989974498749.200000002980232
*        2.
GRID*    2534                           .749999940395355.200000002980232
*        2.
GRID*    2535                           .800009965896606.200000002980232
*        2.
$ ... 1574 like lines cut
GRID     3323            1.      0.      0.
GRID*    3324                            0.              0.
*       .049699936062098
GRID*    3325                            0.              0.
*       .099709935486317
GRID*    3326                            0.              0.
*       .149719938635826
GRID*    3327                            0.              0.
*       .199729934334755
GRID*    3328                            0.              0.
*       .249739930033684
GRID*    3329                            0.              0.
*       .299749940633774
GRID*    3330                            0.              0.
*       .349759936332703
GRID*    3331                            0.              0.
*       .399769932031631
GRID*    3332                            0.              0.
*        .44977992773056
GRID*    3333                            0.              0.
*       .499789923429489
GRID*    3334                            0.              0.
*       .549799919128418
GRID*    3335                            0.              0.
*       .599809944629669
GRID*    3336                            0.              0.
*       .649819910526276
GRID*    3337                            0.              0.
*       .699829936027527
GRID*    3338                            0.              0.
*       .749839961528778
GRID*    3339                            0.              0.
*       .799849927425385
GRID*    3340                            0.              0.
*       .849859952926636
GRID*    3341                            0.              0.
*       .899869918823242
GRID*    3342                            0.              0.
*       .949879944324493
GRID*    3343                            0.              0.
*        .9998899102211
$ ... 38 like lines cut
GRID     3363            0.      0.      0.
GRID*    3364                           .049859967082739 0.
*        0.
GRID*    3365                           .099869966506958 0.
*        0.
GRID*    3366                           .149879962205887 0.
*        0.
GRID*    3367                           .199889972805977 0.
*        0.
GRID*    3368                           .249899968504906 0.
*        0.
GRID*    3369                           .299909979104996 0.
*        0.
GRID*    3370                           .349919974803925 0.
*        0.
GRID*    3371                           .399929970502853 0.
*        0.
GRID*    3372                           .449939966201782 0.
*        0.
GRID*    3373                           .499949961900711 0.
*        0.
GRID*    3374                            .54995995759964 0.
*        0.
GRID*    3375                           .599969983100891 0.
*        0.
GRID*    3376                           .649979948997498 0.
*        0.
GRID*    3377                           .699989974498749 0.
*        0.
GRID*    3378                           .749999940395355 0.
*        0.
GRID*    3379                           .800009965896606 0.
*        0.
GRID*    3380                           .850019991397858 0.
*        0.
GRID*    3381                           .900029957294464 0.
*        0.
GRID*    3382                           .950039982795715 0.
*        0.
GRID*    3383                            0.             .031498786062002
*        .04983726516366
$ ... 2272 like lines cut
$ Loads for Load Case : Default
SPCADD   2       1
LOAD     2       1.      1.      1
$ Displacement Constraints of Load Set : Wall
SPC1     1       123     2515    2539    2540    2541    2542
SPC1     1       123     3324    THRU    3363
SPC1     1       123     3383    THRU    3542
$ Nodal Forces of Load Set : load
FORCE    1       3323    0      1000000. 0.      1.      0.
FORCE    1       4323    0      1000000. 0.      1.      0.
$ Referenced Coordinate Frames
ENDDATA 52e2d00e
